data_00001
_audit_creation_method   'DISCUS'

_data_chemical_name_common 'Au.cell: Pearson 85'

_cell_length_a             24.4734
_cell_length_b             24.4734
_cell_length_c             24.4734
_cell_angle_alpha     90.0000
_cell_angle_beta      90.0000
_cell_angle_gamma     90.0000

_symmetry_space_group_name_H-M   'P1              '

loop_
_atom_site_label
_atom_site_fract_x
_atom_site_fract_y
_atom_site_fract_z
_atom_site_u_iso_or_equiv
AU        0.168333    0.085000    0.085000     0.007504
AU        0.335000    0.085000    0.085000     0.007504
AU        0.501667    0.085000    0.085000     0.007504
AU        0.085000    0.168333    0.085000     0.007504
AU        0.168333    0.168333    0.001667     0.007504
AU        0.168333    0.251667    0.085000     0.007504
AU        0.251667    0.168333    0.085000     0.007504
AU        0.251667    0.251667    0.001667     0.007504
AU        0.335000    0.168333    0.001667     0.007504
AU        0.335000    0.251667    0.085000     0.007504
AU        0.418333    0.168333    0.085000     0.007504
AU        0.418333    0.251667    0.001667     0.007504
AU        0.501667    0.168333    0.001667     0.007504
AU        0.501667    0.251667    0.085000     0.007504
AU        0.585000    0.168333    0.085000     0.007504
AU        0.085000    0.335000    0.085000     0.007504
AU        0.168333    0.335000    0.001667     0.007504
AU        0.168333    0.418333    0.085000     0.007504
AU        0.251667    0.335000    0.085000     0.007504
AU        0.251667    0.418333    0.001667     0.007504
AU        0.335000    0.335000    0.001667     0.007504
AU        0.335000    0.418333    0.085000     0.007504
AU        0.418333    0.335000    0.085000     0.007504
AU        0.418333    0.418333    0.001667     0.007504
AU        0.501667    0.335000    0.001667     0.007504
AU        0.501667    0.418333    0.085000     0.007504
AU        0.585000    0.335000    0.085000     0.007504
AU        0.085000    0.501667    0.085000     0.007504
AU        0.168333    0.501667    0.001667     0.007504
AU        0.168333    0.585000    0.085000     0.007504
AU        0.251667    0.501667    0.085000     0.007504
AU        0.335000    0.501667    0.001667     0.007504
AU        0.335000    0.585000    0.085000     0.007504
AU        0.418333    0.501667    0.085000     0.007504
AU        0.501667    0.501667    0.001667     0.007504
AU        0.501667    0.585000    0.085000     0.007504
AU        0.585000    0.501667    0.085000     0.007504
AU        0.085000    0.085000    0.168333     0.007504
AU        0.168333    0.001667    0.168333     0.007504
AU        0.168333    0.085000    0.251667     0.007504
AU        0.251667    0.001667    0.251667     0.007504
AU        0.251667    0.085000    0.168333     0.007504
AU        0.335000    0.001667    0.168333     0.007504
AU        0.335000    0.085000    0.251667     0.007504
AU        0.418333    0.001667    0.251667     0.007504
AU        0.418333    0.085000    0.168333     0.007504
AU        0.501667    0.001667    0.168333     0.007504
AU        0.501667    0.085000    0.251667     0.007504
AU        0.585000    0.085000    0.168333     0.007504
AU        0.001667    0.168333    0.168333     0.007504
AU        0.001667    0.251667    0.251667     0.007504
AU        0.085000    0.168333    0.251667     0.007504
AU        0.085000    0.251667    0.168333     0.007504
AU        0.168333    0.168333    0.168333     0.007504
AU        0.168333    0.251667    0.251667     0.007504
AU        0.251667    0.168333    0.251667     0.007504
AU        0.251667    0.251667    0.168333     0.007504
AU        0.335000    0.168333    0.168333     0.007504
AU        0.335000    0.251667    0.251667     0.007504
AU        0.418333    0.168333    0.251667     0.007504
AU        0.418333    0.251667    0.168333     0.007504
AU        0.501667    0.168333    0.168333     0.007504
AU        0.501667    0.251667    0.251667     0.007504
AU        0.585000    0.168333    0.251667     0.007504
AU        0.585000    0.251667    0.168333     0.007504
AU        0.668333    0.168333    0.168333     0.007504
AU        0.668333    0.251667    0.251667     0.007504
AU        0.001667    0.335000    0.168333     0.007504
AU        0.001667    0.418333    0.251667     0.007504
AU        0.085000    0.335000    0.251667     0.007504
AU        0.085000    0.418333    0.168333     0.007504
AU        0.168333    0.335000    0.168333     0.007504
AU        0.168333    0.418333    0.251667     0.007504
AU        0.251667    0.335000    0.251667     0.007504
AU        0.251667    0.418333    0.168333     0.007504
AU        0.335000    0.335000    0.168333     0.007504
AU        0.335000    0.418333    0.251667     0.007504
AU        0.418333    0.335000    0.251667     0.007504
AU        0.418333    0.418333    0.168333     0.007504
AU        0.501667    0.335000    0.168333     0.007504
AU        0.501667    0.418333    0.251667     0.007504
AU        0.585000    0.335000    0.251667     0.007504
AU        0.585000    0.418333    0.168333     0.007504
AU        0.668333    0.335000    0.168333     0.007504
AU        0.668333    0.418333    0.251667     0.007504
AU        0.001667    0.501667    0.168333     0.007504
AU        0.085000    0.501667    0.251667     0.007504
AU        0.085000    0.585000    0.168333     0.007504
AU        0.168333    0.501667    0.168333     0.007504
AU        0.168333    0.585000    0.251667     0.007504
AU        0.251667    0.501667    0.251667     0.007504
AU        0.251667    0.585000    0.168333     0.007504
AU        0.335000    0.501667    0.168333     0.007504
AU        0.335000    0.585000    0.251667     0.007504
AU        0.418333    0.501667    0.251667     0.007504
AU        0.418333    0.585000    0.168333     0.007504
AU        0.501667    0.501667    0.168333     0.007504
AU        0.501667    0.585000    0.251667     0.007504
AU        0.585000    0.501667    0.251667     0.007504
AU        0.585000    0.585000    0.168333     0.007504
AU        0.668333    0.501667    0.168333     0.007504
AU        0.168333    0.668333    0.168333     0.007504
AU        0.251667    0.668333    0.251667     0.007504
AU        0.335000    0.668333    0.168333     0.007504
AU        0.418333    0.668333    0.251667     0.007504
AU        0.501667    0.668333    0.168333     0.007504
AU        0.085000    0.085000    0.335000     0.007504
AU        0.168333    0.001667    0.335000     0.007504
AU        0.168333    0.085000    0.418333     0.007504
AU        0.251667    0.001667    0.418333     0.007504
AU        0.251667    0.085000    0.335000     0.007504
AU        0.335000    0.001667    0.335000     0.007504
AU        0.335000    0.085000    0.418333     0.007504
AU        0.418333    0.001667    0.418333     0.007504
AU        0.418333    0.085000    0.335000     0.007504
AU        0.501667    0.001667    0.335000     0.007504
AU        0.501667    0.085000    0.418333     0.007504
AU        0.585000    0.085000    0.335000     0.007504
AU        0.001667    0.168333    0.335000     0.007504
AU        0.001667    0.251667    0.418333     0.007504
AU        0.085000    0.168333    0.418333     0.007504
AU        0.085000    0.251667    0.335000     0.007504
AU        0.168333    0.168333    0.335000     0.007504
AU        0.168333    0.251667    0.418333     0.007504
AU        0.251667    0.168333    0.418333     0.007504
AU        0.251667    0.251667    0.335000     0.007504
AU        0.335000    0.168333    0.335000     0.007504
AU        0.335000    0.251667    0.418333     0.007504
AU        0.418333    0.168333    0.418333     0.007504
AU        0.418333    0.251667    0.335000     0.007504
AU        0.501667    0.168333    0.335000     0.007504
AU        0.501667    0.251667    0.418333     0.007504
AU        0.585000    0.168333    0.418333     0.007504
AU        0.585000    0.251667    0.335000     0.007504
AU        0.668333    0.168333    0.335000     0.007504
AU        0.668333    0.251667    0.418333     0.007504
AU        0.001667    0.335000    0.335000     0.007504
AU        0.001667    0.418333    0.418333     0.007504
AU        0.085000    0.335000    0.418333     0.007504
AU        0.085000    0.418333    0.335000     0.007504
AU        0.168333    0.335000    0.335000     0.007504
AU        0.168333    0.418333    0.418333     0.007504
AU        0.251667    0.335000    0.418333     0.007504
AU        0.251667    0.418333    0.335000     0.007504
AU        0.335000    0.335000    0.335000     0.007504
AU        0.335000    0.418333    0.418333     0.007504
AU        0.418333    0.335000    0.418333     0.007504
AU        0.418333    0.418333    0.335000     0.007504
AU        0.501667    0.335000    0.335000     0.007504
AU        0.501667    0.418333    0.418333     0.007504
AU        0.585000    0.335000    0.418333     0.007504
AU        0.585000    0.418333    0.335000     0.007504
AU        0.668333    0.335000    0.335000     0.007504
AU        0.668333    0.418333    0.418333     0.007504
AU        0.001667    0.501667    0.335000     0.007504
AU        0.085000    0.501667    0.418333     0.007504
AU        0.085000    0.585000    0.335000     0.007504
AU        0.168333    0.501667    0.335000     0.007504
AU        0.168333    0.585000    0.418333     0.007504
AU        0.251667    0.501667    0.418333     0.007504
AU        0.251667    0.585000    0.335000     0.007504
AU        0.335000    0.501667    0.335000     0.007504
AU        0.335000    0.585000    0.418333     0.007504
AU        0.418333    0.501667    0.418333     0.007504
AU        0.418333    0.585000    0.335000     0.007504
AU        0.501667    0.501667    0.335000     0.007504
AU        0.501667    0.585000    0.418333     0.007504
AU        0.585000    0.501667    0.418333     0.007504
AU        0.585000    0.585000    0.335000     0.007504
AU        0.668333    0.501667    0.335000     0.007504
AU        0.168333    0.668333    0.335000     0.007504
AU        0.251667    0.668333    0.418333     0.007504
AU        0.335000    0.668333    0.335000     0.007504
AU        0.418333    0.668333    0.418333     0.007504
AU        0.501667    0.668333    0.335000     0.007504
AU        0.085000    0.085000    0.501667     0.007504
AU        0.168333    0.001667    0.501667     0.007504
AU        0.168333    0.085000    0.585000     0.007504
AU        0.251667    0.085000    0.501667     0.007504
AU        0.335000    0.001667    0.501667     0.007504
AU        0.335000    0.085000    0.585000     0.007504
AU        0.418333    0.085000    0.501667     0.007504
AU        0.501667    0.001667    0.501667     0.007504
AU        0.501667    0.085000    0.585000     0.007504
AU        0.585000    0.085000    0.501667     0.007504
AU        0.001667    0.168333    0.501667     0.007504
AU        0.085000    0.168333    0.585000     0.007504
AU        0.085000    0.251667    0.501667     0.007504
AU        0.168333    0.168333    0.501667     0.007504
AU        0.168333    0.251667    0.585000     0.007504
AU        0.251667    0.168333    0.585000     0.007504
AU        0.251667    0.251667    0.501667     0.007504
AU        0.335000    0.168333    0.501667     0.007504
AU        0.335000    0.251667    0.585000     0.007504
AU        0.418333    0.168333    0.585000     0.007504
AU        0.418333    0.251667    0.501667     0.007504
AU        0.501667    0.168333    0.501667     0.007504
AU        0.501667    0.251667    0.585000     0.007504
AU        0.585000    0.168333    0.585000     0.007504
AU        0.585000    0.251667    0.501667     0.007504
AU        0.668333    0.168333    0.501667     0.007504
AU        0.001667    0.335000    0.501667     0.007504
AU        0.085000    0.335000    0.585000     0.007504
AU        0.085000    0.418333    0.501667     0.007504
AU        0.168333    0.335000    0.501667     0.007504
AU        0.168333    0.418333    0.585000     0.007504
AU        0.251667    0.335000    0.585000     0.007504
AU        0.251667    0.418333    0.501667     0.007504
AU        0.335000    0.335000    0.501667     0.007504
AU        0.335000    0.418333    0.585000     0.007504
AU        0.418333    0.335000    0.585000     0.007504
AU        0.418333    0.418333    0.501667     0.007504
AU        0.501667    0.335000    0.501667     0.007504
AU        0.501667    0.418333    0.585000     0.007504
AU        0.585000    0.335000    0.585000     0.007504
AU        0.585000    0.418333    0.501667     0.007504
AU        0.668333    0.335000    0.501667     0.007504
AU        0.001667    0.501667    0.501667     0.007504
AU        0.085000    0.501667    0.585000     0.007504
AU        0.085000    0.585000    0.501667     0.007504
AU        0.168333    0.501667    0.501667     0.007504
AU        0.168333    0.585000    0.585000     0.007504
AU        0.251667    0.501667    0.585000     0.007504
AU        0.251667    0.585000    0.501667     0.007504
AU        0.335000    0.501667    0.501667     0.007504
AU        0.335000    0.585000    0.585000     0.007504
AU        0.418333    0.501667    0.585000     0.007504
AU        0.418333    0.585000    0.501667     0.007504
AU        0.501667    0.501667    0.501667     0.007504
AU        0.501667    0.585000    0.585000     0.007504
AU        0.585000    0.501667    0.585000     0.007504
AU        0.585000    0.585000    0.501667     0.007504
AU        0.668333    0.501667    0.501667     0.007504
AU        0.168333    0.668333    0.501667     0.007504
AU        0.335000    0.668333    0.501667     0.007504
AU        0.501667    0.668333    0.501667     0.007504
AU        0.168333    0.168333    0.668333     0.007504
AU        0.251667    0.251667    0.668333     0.007504
AU        0.335000    0.168333    0.668333     0.007504
AU        0.418333    0.251667    0.668333     0.007504
AU        0.501667    0.168333    0.668333     0.007504
AU        0.168333    0.335000    0.668333     0.007504
AU        0.251667    0.418333    0.668333     0.007504
AU        0.335000    0.335000    0.668333     0.007504
AU        0.418333    0.418333    0.668333     0.007504
AU        0.501667    0.335000    0.668333     0.007504
AU        0.168333    0.501667    0.668333     0.007504
AU        0.335000    0.501667    0.668333     0.007504
AU        0.501667    0.501667    0.668333     0.007504
